New linecode.example nphases=3 BaseFreq=60
~rmatrix = [0.0010592176264388623 5.921762643886233e-05 5.921762643886233e-05 |5.921762643886233e-05 0.0010592176264388623 5.921762643886233e-05 |5.921762643886233e-05 5.921762643886233e-05 0.0010592176264388623 |]
~xmatrix = [0.0010294219472619173 inf inf |inf 0.0010294219472619173 inf |inf inf 0.0010294219472619173 |]
~cmatrix = [nan nan nan |nan nan nan |nan nan nan |]